Circuit: * Z:\home\sdanthinne\Documents\307\computer\gateTransistorModels\clkTest.asc

Warning: Multiple definitions of model "cd4007ube" Type: Mos1
Warning: Multiple definitions of model "cd4007" Type: Mos1
Ignoring BSIM parameter XL
Ignoring BSIM parameter XW
Unknown node in .ic card: "x1:vback" -- ignoring
Warning: Pd = 0 is less than W.
Warning: Ps = 0 is less than W.
Direct Newton iteration failed to find .op point.  (Use ".option noopiter" to skip.)
Starting Gmin stepping
Gmin = 10
Gmin = 1.07374
Gmin = 0.115292
Gmin = 0.0123794
Gmin = 0.00132923
Gmin = 0.000142725
Gmin = 1.5325e-005
Gmin = 1.6455e-006
Gmin = 1.76685e-007
Gmin = 1.89714e-008
Gmin = 2.03704e-009
Gmin = 2.18725e-010
Gmin = 2.34854e-011
Gmin = 2.52173e-012
Gmin = 2.70769e-013
Gmin = 0
Gmin stepping succeeded in finding the operating point.


Date: Tue Feb 16 23:46:37 2021
Total elapsed time: 4.652 seconds.

tnom = 27
temp = 27
method = modified trap
totiter = 80658
traniter = 80242
tranpoints = 26368
accept = 16966
rejected = 9402
matrix size = 70
fillins = 60
solver = Normal
Thread vector: 88.4/19.5[4] 24.4/5.9[4] 6.0/3.2[4] 0.4/2.0[1]  2592/500
Matrix Compiler1: 9.41 KB object code size  3.2/2.5/[0.9]
Matrix Compiler2: 9.19 KB object code size  1.9/2.8/[0.5]

