Circuit: * Z:\home\sdanthinne\Documents\307\gateTransistorModels\Draft12.asc

Warning: Multiple definitions of model "cd4007ube" Type: Mos1
Warning: Multiple definitions of model "cd4007" Type: Mos1
Warning: Multiple definitions of model "x1:x11:cd4007ube" Type: Mos1
Warning: Multiple definitions of model "x1:x11:cd4007" Type: Mos1
Warning: Multiple definitions of model "x1:x4:cd4007ube" Type: Mos1
Warning: Multiple definitions of model "x1:x4:cd4007" Type: Mos1
Warning: Multiple definitions of model "x1:x7:cd4007ube" Type: Mos1
Warning: Multiple definitions of model "x1:x7:cd4007" Type: Mos1
Warning: Multiple definitions of model "x1:x3:x5:cd4007ube" Type: Mos1
Warning: Multiple definitions of model "x1:x3:x5:cd4007" Type: Mos1
Warning: Multiple definitions of model "x1:x3:x4:cd4007ube" Type: Mos1
Warning: Multiple definitions of model "x1:x3:x4:cd4007" Type: Mos1
Warning: Multiple definitions of model "x1:x3:x3:cd4007ube" Type: Mos1
Warning: Multiple definitions of model "x1:x3:x3:cd4007" Type: Mos1
Warning: Multiple definitions of model "x1:x3:x2:cd4007ube" Type: Mos1
Warning: Multiple definitions of model "x1:x3:x2:cd4007" Type: Mos1
Warning: Multiple definitions of model "x1:x2:x5:cd4007ube" Type: Mos1
Warning: Multiple definitions of model "x1:x2:x5:cd4007" Type: Mos1
Warning: Multiple definitions of model "x1:x2:x4:cd4007ube" Type: Mos1
Warning: Multiple definitions of model "x1:x2:x4:cd4007" Type: Mos1
Warning: Multiple definitions of model "x1:x2:x3:cd4007ube" Type: Mos1
Warning: Multiple definitions of model "x1:x2:x3:cd4007" Type: Mos1
Warning: Multiple definitions of model "x1:x2:x2:cd4007ube" Type: Mos1
Warning: Multiple definitions of model "x1:x2:x2:cd4007" Type: Mos1
Warning: Multiple definitions of model "x1:x1:x5:cd4007ube" Type: Mos1
Warning: Multiple definitions of model "x1:x1:x5:cd4007" Type: Mos1
Warning: Multiple definitions of model "x1:x1:x4:cd4007ube" Type: Mos1
Warning: Multiple definitions of model "x1:x1:x4:cd4007" Type: Mos1
Warning: Multiple definitions of model "x1:x1:x3:cd4007ube" Type: Mos1
Warning: Multiple definitions of model "x1:x1:x3:cd4007" Type: Mos1
Warning: Multiple definitions of model "x1:x1:x2:cd4007ube" Type: Mos1
Warning: Multiple definitions of model "x1:x1:x2:cd4007" Type: Mos1
Ignoring BSIM parameter XL
Ignoring BSIM parameter XW
Ignoring BSIM parameter XL
Ignoring BSIM parameter XW
Ignoring BSIM parameter XL
Ignoring BSIM parameter XW
Ignoring BSIM parameter XL
Ignoring BSIM parameter XW
Ignoring BSIM parameter XL
Ignoring BSIM parameter XW
Ignoring BSIM parameter XL
Ignoring BSIM parameter XW
Ignoring BSIM parameter XL
Ignoring BSIM parameter XW
Ignoring BSIM parameter XL
Ignoring BSIM parameter XW
Ignoring BSIM parameter XL
Ignoring BSIM parameter XW
Ignoring BSIM parameter XL
Ignoring BSIM parameter XW
Ignoring BSIM parameter XL
Ignoring BSIM parameter XW
Ignoring BSIM parameter XL
Ignoring BSIM parameter XW
Ignoring BSIM parameter XL
Ignoring BSIM parameter XW
Ignoring BSIM parameter XL
Ignoring BSIM parameter XW
Ignoring BSIM parameter XL
Ignoring BSIM parameter XW
Ignoring BSIM parameter XL
Ignoring BSIM parameter XW
Ignoring BSIM parameter XL
Ignoring BSIM parameter XW
Ignoring BSIM parameter XL
Ignoring BSIM parameter XW
Ignoring BSIM parameter XL
Ignoring BSIM parameter XW
Ignoring BSIM parameter XL
Ignoring BSIM parameter XW
Ignoring BSIM parameter XL
Ignoring BSIM parameter XW
Ignoring BSIM parameter XL
Ignoring BSIM parameter XW
Ignoring BSIM parameter XL
Ignoring BSIM parameter XW
Ignoring BSIM parameter XL
Ignoring BSIM parameter XW
Ignoring BSIM parameter XL
Ignoring BSIM parameter XW
Ignoring BSIM parameter XL
Ignoring BSIM parameter XW
Ignoring BSIM parameter XL
Ignoring BSIM parameter XW
Ignoring BSIM parameter XL
Ignoring BSIM parameter XW
Ignoring BSIM parameter XL
Ignoring BSIM parameter XW
Ignoring BSIM parameter XL
Ignoring BSIM parameter XW
Ignoring BSIM parameter XL
Ignoring BSIM parameter XW
Ignoring BSIM parameter XL
Ignoring BSIM parameter XW
Warning: Pd = 0 is less than W.
Warning: Ps = 0 is less than W.
Warning: Pd = 0 is less than W.
Warning: Ps = 0 is less than W.
Warning: Pd = 0 is less than W.
Warning: Ps = 0 is less than W.
Warning: Pd = 0 is less than W.
Warning: Ps = 0 is less than W.
Warning: Pd = 0 is less than W.
Warning: Ps = 0 is less than W.
Warning: Pd = 0 is less than W.
Warning: Ps = 0 is less than W.
Warning: Pd = 0 is less than W.
Warning: Ps = 0 is less than W.
Warning: Pd = 0 is less than W.
Warning: Ps = 0 is less than W.
Warning: Pd = 0 is less than W.
Warning: Ps = 0 is less than W.
Warning: Pd = 0 is less than W.
Warning: Ps = 0 is less than W.
Warning: Pd = 0 is less than W.
Warning: Ps = 0 is less than W.
Warning: Pd = 0 is less than W.
Warning: Ps = 0 is less than W.
Warning: Pd = 0 is less than W.
Warning: Ps = 0 is less than W.
Warning: Pd = 0 is less than W.
Warning: Ps = 0 is less than W.
Warning: Pd = 0 is less than W.
Warning: Ps = 0 is less than W.
Warning: Pd = 0 is less than W.
Warning: Ps = 0 is less than W.
Warning: Pd = 0 is less than W.
Warning: Ps = 0 is less than W.
Warning: Pd = 0 is less than W.
Warning: Ps = 0 is less than W.
Warning: Pd = 0 is less than W.
Warning: Ps = 0 is less than W.
Warning: Pd = 0 is less than W.
Warning: Ps = 0 is less than W.
Warning: Pd = 0 is less than W.
Warning: Ps = 0 is less than W.
Warning: Pd = 0 is less than W.
Warning: Ps = 0 is less than W.
Warning: Pd = 0 is less than W.
Warning: Ps = 0 is less than W.
Warning: Pd = 0 is less than W.
Warning: Ps = 0 is less than W.
Warning: Pd = 0 is less than W.
Warning: Ps = 0 is less than W.
Warning: Pd = 0 is less than W.
Warning: Ps = 0 is less than W.
Warning: Pd = 0 is less than W.
Warning: Ps = 0 is less than W.
Warning: Pd = 0 is less than W.
Warning: Ps = 0 is less than W.
Warning: Pd = 0 is less than W.
Warning: Ps = 0 is less than W.
Warning: Pd = 0 is less than W.
Warning: Ps = 0 is less than W.
Warning: Pd = 0 is less than W.
Warning: Ps = 0 is less than W.
Warning: Pd = 0 is less than W.
Warning: Ps = 0 is less than W.
Warning: Pd = 0 is less than W.
Warning: Ps = 0 is less than W.
Warning: Pd = 0 is less than W.
Warning: Ps = 0 is less than W.
Direct Newton iteration failed to find .op point.  (Use ".option noopiter" to skip.)
Starting Gmin stepping
Gmin = 10
Gmin = 1.07374
Gmin = 0.115292
Gmin = 0.0123794
Gmin = 0.00132923
Gmin = 0.000142725
Gmin = 1.5325e-005
Gmin = 1.6455e-006
Gmin = 1.76685e-007
Gmin = 1.89714e-008
Gmin = 2.03704e-009
Gmin = 2.18725e-010
Gmin = 2.34854e-011
Gmin = 2.52173e-012
Gmin = 2.70769e-013
Gmin = 0
Gmin stepping succeeded in finding the operating point.

Ignoring empty pin current: Ix(x1:p[3])
Ignoring empty pin current: Ix(x1:p[3])

Date: Wed Mar 03 13:31:52 2021
Total elapsed time: 1.057 seconds.

tnom = 27
temp = 27
method = modified trap
totiter = 12339
traniter = 11912
tranpoints = 4628
accept = 3640
rejected = 988
matrix size = 88
fillins = 152
solver = Normal
Thread vector: 128.4/33.9[12] 21.0/7.2[12] 6.5/3.6[12] 0.3/101.9[1]  2592/500
Matrix Compiler1: 19.09 KB object code size  4.2/1.7/[1.2]
Matrix Compiler2: 13.34 KB object code size  1.8/1.8/[0.7]

