Circuit: * Z:\home\sdanthinne\Documents\307\computer\gateTransistorModels\Draft1.asc

V1: Missing value, assumed 0V @ DC

Date: Tue Jan 19 12:05:37 2021
Total elapsed time: 0.072 seconds.

tnom = 27
temp = 27
method = trap
totiter = 2065
traniter = 0
tranpoints = 0
accept = 0
rejected = 0
matrix size = 6
fillins = 0
solver = Normal
Matrix Compiler1: 200 bytes object code size  0.1/0.1/[0.1]
Matrix Compiler2: 436 bytes object code size  0.1/0.1/[0.1]

