Circuit: * Z:\home\sdanthinne\Documents\307\gateTransistorModels\ff-test.asc

Warning: Multiple definitions of model "cd4007ube" Type: Mos1
Warning: Multiple definitions of model "cd4007" Type: Mos1
Warning: Multiple definitions of model "x1:x5:cd4007ube" Type: Mos1
Warning: Multiple definitions of model "x1:x5:cd4007" Type: Mos1
Warning: Multiple definitions of model "x1:x4:cd4007ube" Type: Mos1
Warning: Multiple definitions of model "x1:x4:cd4007" Type: Mos1
Warning: Multiple definitions of model "x1:x3:cd4007ube" Type: Mos1
Warning: Multiple definitions of model "x1:x3:cd4007" Type: Mos1
Warning: Multiple definitions of model "x1:x2:cd4007ube" Type: Mos1
Warning: Multiple definitions of model "x1:x2:cd4007" Type: Mos1
Ignoring BSIM parameter XL
Ignoring BSIM parameter XW
Ignoring BSIM parameter XL
Ignoring BSIM parameter XW
Ignoring BSIM parameter XL
Ignoring BSIM parameter XW
Ignoring BSIM parameter XL
Ignoring BSIM parameter XW
Ignoring BSIM parameter XL
Ignoring BSIM parameter XW
Ignoring BSIM parameter XL
Ignoring BSIM parameter XW
Ignoring BSIM parameter XL
Ignoring BSIM parameter XW
Ignoring BSIM parameter XL
Ignoring BSIM parameter XW
Ignoring BSIM parameter XL
Ignoring BSIM parameter XW
Ignoring BSIM parameter XL
Ignoring BSIM parameter XW
Warning: Pd = 0 is less than W.
Warning: Ps = 0 is less than W.
Warning: Pd = 0 is less than W.
Warning: Ps = 0 is less than W.
Warning: Pd = 0 is less than W.
Warning: Ps = 0 is less than W.
Warning: Pd = 0 is less than W.
Warning: Ps = 0 is less than W.
Warning: Pd = 0 is less than W.
Warning: Ps = 0 is less than W.
Warning: Pd = 0 is less than W.
Warning: Ps = 0 is less than W.
Warning: Pd = 0 is less than W.
Warning: Ps = 0 is less than W.
Warning: Pd = 0 is less than W.
Warning: Ps = 0 is less than W.
Warning: Pd = 0 is less than W.
Warning: Ps = 0 is less than W.
Warning: Pd = 0 is less than W.
Warning: Ps = 0 is less than W.
Warning: Pd = 0 is less than W.
Warning: Ps = 0 is less than W.
Warning: Pd = 0 is less than W.
Warning: Ps = 0 is less than W.
Direct Newton iteration for .op point succeeded.

Date: Sun Mar 07 18:56:29 2021
Total elapsed time: 0.351 seconds.

tnom = 27
temp = 27
method = modified trap
totiter = 15565
traniter = 15530
tranpoints = 5834
accept = 4406
rejected = 1428
matrix size = 30
fillins = 20
solver = Normal
Thread vector: 50.5/28.5[4] 13.5/3.8[4] 2.3/1.2[4] 0.2/0.7[1]  2592/500
Matrix Compiler1: 3.63 KB object code size  1.3/0.6/[0.6]
Matrix Compiler2: 3.58 KB object code size  0.7/1.1/[0.5]

