Circuit: * Z:\home\sdanthinne\Documents\307\gateTransistorModels\ff-test.asc

Warning: Multiple definitions of model "cd4007ube" Type: Mos1
Warning: Multiple definitions of model "cd4007" Type: Mos1
Warning: Multiple definitions of model "x1:x5:cd4007ube" Type: Mos1
Warning: Multiple definitions of model "x1:x5:cd4007" Type: Mos1
Warning: Multiple definitions of model "x1:x4:cd4007ube" Type: Mos1
Warning: Multiple definitions of model "x1:x4:cd4007" Type: Mos1
Warning: Multiple definitions of model "x1:x3:cd4007ube" Type: Mos1
Warning: Multiple definitions of model "x1:x3:cd4007" Type: Mos1
Warning: Multiple definitions of model "x1:x2:cd4007ube" Type: Mos1
Warning: Multiple definitions of model "x1:x2:cd4007" Type: Mos1
Ignoring BSIM parameter XL
Ignoring BSIM parameter XW
Ignoring BSIM parameter XL
Ignoring BSIM parameter XW
Ignoring BSIM parameter XL
Ignoring BSIM parameter XW
Ignoring BSIM parameter XL
Ignoring BSIM parameter XW
Ignoring BSIM parameter XL
Ignoring BSIM parameter XW
Ignoring BSIM parameter XL
Ignoring BSIM parameter XW
Ignoring BSIM parameter XL
Ignoring BSIM parameter XW
Ignoring BSIM parameter XL
Ignoring BSIM parameter XW
Ignoring BSIM parameter XL
Ignoring BSIM parameter XW
Ignoring BSIM parameter XL
Ignoring BSIM parameter XW
Warning: Pd = 0 is less than W.
Warning: Ps = 0 is less than W.
Warning: Pd = 0 is less than W.
Warning: Ps = 0 is less than W.
Warning: Pd = 0 is less than W.
Warning: Ps = 0 is less than W.
Warning: Pd = 0 is less than W.
Warning: Ps = 0 is less than W.
Warning: Pd = 0 is less than W.
Warning: Ps = 0 is less than W.
Warning: Pd = 0 is less than W.
Warning: Ps = 0 is less than W.
Warning: Pd = 0 is less than W.
Warning: Ps = 0 is less than W.
Warning: Pd = 0 is less than W.
Warning: Ps = 0 is less than W.
Warning: Pd = 0 is less than W.
Warning: Ps = 0 is less than W.
Warning: Pd = 0 is less than W.
Warning: Ps = 0 is less than W.
Warning: Pd = 0 is less than W.
Warning: Ps = 0 is less than W.
Warning: Pd = 0 is less than W.
Warning: Ps = 0 is less than W.
Direct Newton iteration for .op point succeeded.

Date: Wed Mar 03 07:52:46 2021
Total elapsed time: 0.286 seconds.

tnom = 27
temp = 27
method = modified trap
totiter = 12280
traniter = 12236
tranpoints = 4774
accept = 3758
rejected = 1016
matrix size = 24
fillins = 8
solver = Normal
Thread vector: 28.9/17.3[3] 7.9/4.3[3] 1.3/1.4[1] 0.2/0.6[1]  2592/500
Matrix Compiler1: 2.49 KB object code size  1.0/0.4/[0.3]
Matrix Compiler2: 2.75 KB object code size  0.5/0.7/[0.5]

