Circuit: * Z:\home\sdanthinne\Documents\307\gateTransistorModels\ff-test.asc

Warning: Multiple definitions of model "cd4007ube" Type: Mos1
Warning: Multiple definitions of model "cd4007" Type: Mos1
Warning: Multiple definitions of model "x1:x5:cd4007ube" Type: Mos1
Warning: Multiple definitions of model "x1:x5:cd4007" Type: Mos1
Warning: Multiple definitions of model "x1:x4:cd4007ube" Type: Mos1
Warning: Multiple definitions of model "x1:x4:cd4007" Type: Mos1
Warning: Multiple definitions of model "x1:x3:cd4007ube" Type: Mos1
Warning: Multiple definitions of model "x1:x3:cd4007" Type: Mos1
Warning: Multiple definitions of model "x1:x2:cd4007ube" Type: Mos1
Warning: Multiple definitions of model "x1:x2:cd4007" Type: Mos1
Ignoring BSIM parameter XL
Ignoring BSIM parameter XW
Ignoring BSIM parameter XL
Ignoring BSIM parameter XW
Ignoring BSIM parameter XL
Ignoring BSIM parameter XW
Ignoring BSIM parameter XL
Ignoring BSIM parameter XW
Ignoring BSIM parameter XL
Ignoring BSIM parameter XW
Ignoring BSIM parameter XL
Ignoring BSIM parameter XW
Ignoring BSIM parameter XL
Ignoring BSIM parameter XW
Ignoring BSIM parameter XL
Ignoring BSIM parameter XW
Ignoring BSIM parameter XL
Ignoring BSIM parameter XW
Ignoring BSIM parameter XL
Ignoring BSIM parameter XW
Warning: Pd = 0 is less than W.
Warning: Ps = 0 is less than W.
Warning: Pd = 0 is less than W.
Warning: Ps = 0 is less than W.
Warning: Pd = 0 is less than W.
Warning: Ps = 0 is less than W.
Warning: Pd = 0 is less than W.
Warning: Ps = 0 is less than W.
Warning: Pd = 0 is less than W.
Warning: Ps = 0 is less than W.
Warning: Pd = 0 is less than W.
Warning: Ps = 0 is less than W.
Warning: Pd = 0 is less than W.
Warning: Ps = 0 is less than W.
Warning: Pd = 0 is less than W.
Warning: Ps = 0 is less than W.
Warning: Pd = 0 is less than W.
Warning: Ps = 0 is less than W.
Warning: Pd = 0 is less than W.
Warning: Ps = 0 is less than W.
Warning: Pd = 0 is less than W.
Warning: Ps = 0 is less than W.
Warning: Pd = 0 is less than W.
Warning: Ps = 0 is less than W.
Direct Newton iteration for .op point succeeded.

Date: Wed Mar 03 13:35:42 2021
Total elapsed time: 0.210 seconds.

tnom = 27
temp = 27
method = modified trap
totiter = 12298
traniter = 12254
tranpoints = 4684
accept = 3652
rejected = 1032
matrix size = 24
fillins = 6
solver = Normal
Thread vector: 28.9/17.8[3] 5.8/3.3[3] 1.3/1.2[1] 0.2/0.6[1]  2592/500
Matrix Compiler1: 2.41 KB object code size  0.8/0.5/[0.4]
Matrix Compiler2: 2.72 KB object code size  0.5/0.6/[0.5]

