Circuit: *full sweep

Fatal Error: No analysis request found.
