Circuit: * Z:\home\sdanthinne\Documents\307\computer\gateTransistorModels\gateTest.asc

Warning: Multiple definitions of model "x5:cd4007ube" Type: Mos1
Warning: Multiple definitions of model "x5:cd4007" Type: Mos1
Warning: Multiple definitions of model "x4:cd4007ube" Type: Mos1
Warning: Multiple definitions of model "x4:cd4007" Type: Mos1
Warning: Multiple definitions of model "x3:cd4007ube" Type: Mos1
Warning: Multiple definitions of model "x3:cd4007" Type: Mos1
Warning: Multiple definitions of model "x2:cd4007ube" Type: Mos1
Warning: Multiple definitions of model "x2:cd4007" Type: Mos1
Warning: Multiple definitions of model "x1:cd4007ube" Type: Mos1
Warning: Multiple definitions of model "x1:cd4007" Type: Mos1
Ignoring BSIM parameter XL
Ignoring BSIM parameter XW
Ignoring BSIM parameter XL
Ignoring BSIM parameter XW
Ignoring BSIM parameter XL
Ignoring BSIM parameter XW
Ignoring BSIM parameter XL
Ignoring BSIM parameter XW
Ignoring BSIM parameter XL
Ignoring BSIM parameter XW
Ignoring BSIM parameter XL
Ignoring BSIM parameter XW
Ignoring BSIM parameter XL
Ignoring BSIM parameter XW
Ignoring BSIM parameter XL
Ignoring BSIM parameter XW
Ignoring BSIM parameter XL
Ignoring BSIM parameter XW
Ignoring BSIM parameter XL
Ignoring BSIM parameter XW
WARNING: Less than two connections to node VOR.  This node is used by A:X2:1.
WARNING: Less than two connections to node VAND.  This node is used by A:X5:1.
Warning: Pd = 0 is less than W.
Warning: Ps = 0 is less than W.
Warning: Pd = 0 is less than W.
Warning: Ps = 0 is less than W.
Warning: Pd = 0 is less than W.
Warning: Ps = 0 is less than W.
Warning: Pd = 0 is less than W.
Warning: Ps = 0 is less than W.
Warning: Pd = 0 is less than W.
Warning: Ps = 0 is less than W.
Warning: Pd = 0 is less than W.
Warning: Ps = 0 is less than W.
Warning: Pd = 0 is less than W.
Warning: Ps = 0 is less than W.
Warning: Pd = 0 is less than W.
Warning: Ps = 0 is less than W.
Warning: Pd = 0 is less than W.
Warning: Ps = 0 is less than W.
Warning: Pd = 0 is less than W.
Warning: Ps = 0 is less than W.
Direct Newton iteration for .op point succeeded.

Date: Tue Jan 19 08:10:53 2021
Total elapsed time: 0.333 seconds.

tnom = 27
temp = 27
method = modified trap
totiter = 12698
traniter = 12654
tranpoints = 4411
accept = 3554
rejected = 857
matrix size = 23
fillins = 0
solver = Normal
Thread vector: 14.6/11.0[2] 3.4/2.0[2] 1.1/1.1[1] 0.1/0.9[1]  2592/500
Matrix Compiler1: 1.57 KB object code size  0.3/0.2/[0.1]
Matrix Compiler2: 2.35 KB object code size  0.3/0.3/[0.2]

