Circuit: * Z:\home\sdanthinne\Documents\307\computer\gateTransistorModels\gateTest.asc

Warning: Multiple definitions of model "x7:cd4007ube" Type: Mos1
Warning: Multiple definitions of model "x7:cd4007" Type: Mos1
Warning: Multiple definitions of model "x5:cd4007ube" Type: Mos1
Warning: Multiple definitions of model "x5:cd4007" Type: Mos1
Warning: Multiple definitions of model "x4:cd4007ube" Type: Mos1
Warning: Multiple definitions of model "x4:cd4007" Type: Mos1
Warning: Multiple definitions of model "x3:cd4007ube" Type: Mos1
Warning: Multiple definitions of model "x3:cd4007" Type: Mos1
Warning: Multiple definitions of model "x2:cd4007ube" Type: Mos1
Warning: Multiple definitions of model "x2:cd4007" Type: Mos1
Warning: Multiple definitions of model "x1:cd4007ube" Type: Mos1
Warning: Multiple definitions of model "x1:cd4007" Type: Mos1
Ignoring BSIM parameter XL
Ignoring BSIM parameter XW
Ignoring BSIM parameter XL
Ignoring BSIM parameter XW
Ignoring BSIM parameter XL
Ignoring BSIM parameter XW
Ignoring BSIM parameter XL
Ignoring BSIM parameter XW
Ignoring BSIM parameter XL
Ignoring BSIM parameter XW
Ignoring BSIM parameter XL
Ignoring BSIM parameter XW
Ignoring BSIM parameter XL
Ignoring BSIM parameter XW
Ignoring BSIM parameter XL
Ignoring BSIM parameter XW
Ignoring BSIM parameter XL
Ignoring BSIM parameter XW
Ignoring BSIM parameter XL
Ignoring BSIM parameter XW
Ignoring BSIM parameter XL
Ignoring BSIM parameter XW
Ignoring BSIM parameter XL
Ignoring BSIM parameter XW
WARNING: Less than two connections to node VOR.  This node is used by A:X2:1.
WARNING: Less than two connections to node VAND.  This node is used by A:X5:1.
WARNING: Less than two connections to node VXNOR.  This node is used by A:X7:3.
Warning: Pd = 0 is less than W.
Warning: Ps = 0 is less than W.
Warning: Pd = 0 is less than W.
Warning: Ps = 0 is less than W.
Warning: Pd = 0 is less than W.
Warning: Ps = 0 is less than W.
Warning: Pd = 0 is less than W.
Warning: Ps = 0 is less than W.
Warning: Pd = 0 is less than W.
Warning: Ps = 0 is less than W.
Warning: Pd = 0 is less than W.
Warning: Ps = 0 is less than W.
Warning: Pd = 0 is less than W.
Warning: Ps = 0 is less than W.
Warning: Pd = 0 is less than W.
Warning: Ps = 0 is less than W.
Warning: Pd = 0 is less than W.
Warning: Ps = 0 is less than W.
Warning: Pd = 0 is less than W.
Warning: Ps = 0 is less than W.
Warning: Pd = 0 is less than W.
Warning: Ps = 0 is less than W.
Warning: Pd = 0 is less than W.
Warning: Ps = 0 is less than W.
Direct Newton iteration for .op point succeeded.

Date: Tue Jan 26 15:56:51 2021
Total elapsed time: 0.683 seconds.

tnom = 27
temp = 27
method = modified trap
totiter = 13186
traniter = 13154
tranpoints = 4510
accept = 3610
rejected = 900
matrix size = 31
fillins = 0
solver = Normal
Thread vector: 38.7/17.7[3] 7.8/4.1[3] 1.8/1.9[1] 0.1/1.1[1]  2592/500
Matrix Compiler1: 2.23 KB object code size  1.0/0.6/[0.5]
Matrix Compiler2: 3.25 KB object code size  0.6/0.9/[0.3]

