Circuit: * Z:\home\sdanthinne\Documents\307\gateTransistorModels\gateTest.asc

Warning: Multiple definitions of model "x7:cd4007ube" Type: Mos1
Warning: Multiple definitions of model "x7:cd4007" Type: Mos1
Warning: Multiple definitions of model "x5:cd4007ube" Type: Mos1
Warning: Multiple definitions of model "x5:cd4007" Type: Mos1
Warning: Multiple definitions of model "x4:cd4007ube" Type: Mos1
Warning: Multiple definitions of model "x4:cd4007" Type: Mos1
Warning: Multiple definitions of model "x3:cd4007ube" Type: Mos1
Warning: Multiple definitions of model "x3:cd4007" Type: Mos1
Warning: Multiple definitions of model "x2:cd4007ube" Type: Mos1
Warning: Multiple definitions of model "x2:cd4007" Type: Mos1
Warning: Multiple definitions of model "x1:cd4007ube" Type: Mos1
Warning: Multiple definitions of model "x1:cd4007" Type: Mos1
Ignoring BSIM parameter XL
Ignoring BSIM parameter XW
Ignoring BSIM parameter XL
Ignoring BSIM parameter XW
Ignoring BSIM parameter XL
Ignoring BSIM parameter XW
Ignoring BSIM parameter XL
Ignoring BSIM parameter XW
Ignoring BSIM parameter XL
Ignoring BSIM parameter XW
Ignoring BSIM parameter XL
Ignoring BSIM parameter XW
Ignoring BSIM parameter XL
Ignoring BSIM parameter XW
Ignoring BSIM parameter XL
Ignoring BSIM parameter XW
Ignoring BSIM parameter XL
Ignoring BSIM parameter XW
Ignoring BSIM parameter XL
Ignoring BSIM parameter XW
Ignoring BSIM parameter XL
Ignoring BSIM parameter XW
Ignoring BSIM parameter XL
Ignoring BSIM parameter XW
WARNING: Less than two connections to node VOR.  This node is used by A:X2:1.
WARNING: Less than two connections to node VAND.  This node is used by A:X5:1.
WARNING: Less than two connections to node VXNOR.  This node is used by A:X7:3.
Warning: Pd = 0 is less than W.
Warning: Ps = 0 is less than W.
Warning: Pd = 0 is less than W.
Warning: Ps = 0 is less than W.
Warning: Pd = 0 is less than W.
Warning: Ps = 0 is less than W.
Warning: Pd = 0 is less than W.
Warning: Ps = 0 is less than W.
Warning: Pd = 0 is less than W.
Warning: Ps = 0 is less than W.
Warning: Pd = 0 is less than W.
Warning: Ps = 0 is less than W.
Warning: Pd = 0 is less than W.
Warning: Ps = 0 is less than W.
Warning: Pd = 0 is less than W.
Warning: Ps = 0 is less than W.
Warning: Pd = 0 is less than W.
Warning: Ps = 0 is less than W.
Warning: Pd = 0 is less than W.
Warning: Ps = 0 is less than W.
Warning: Pd = 0 is less than W.
Warning: Ps = 0 is less than W.
Warning: Pd = 0 is less than W.
Warning: Ps = 0 is less than W.
Direct Newton iteration for .op point succeeded.

Date: Wed Jan 27 11:18:15 2021
Total elapsed time: 0.287 seconds.

tnom = 27
temp = 27
method = modified trap
totiter = 13224
traniter = 13192
tranpoints = 4515
accept = 3594
rejected = 921
matrix size = 31
fillins = 0
solver = Normal
Thread vector: 25.4/21.3[3] 7.1/4.0[3] 1.4/1.1[2] 0.2/1.4[1]  2592/500
Matrix Compiler1: 2.23 KB object code size  1.0/0.4/[0.4]
Matrix Compiler2: 3.25 KB object code size  0.6/0.7/[0.4]

