Circuit: * Z:\home\sdanthinne\Documents\307\computer\gateTransistorModels\gateTest.asc

Warning: Multiple definitions of model "x5:cd4007ube" Type: Mos1
Warning: Multiple definitions of model "x5:cd4007" Type: Mos1
Warning: Multiple definitions of model "x4:cd4007ube" Type: Mos1
Warning: Multiple definitions of model "x4:cd4007" Type: Mos1
Warning: Multiple definitions of model "x3:cd4007ube" Type: Mos1
Warning: Multiple definitions of model "x3:cd4007" Type: Mos1
Warning: Multiple definitions of model "x2:cd4007ube" Type: Mos1
Warning: Multiple definitions of model "x2:cd4007" Type: Mos1
Warning: Multiple definitions of model "x1:cd4007ube" Type: Mos1
Warning: Multiple definitions of model "x1:cd4007" Type: Mos1
Ignoring BSIM parameter XL
Ignoring BSIM parameter XW
Ignoring BSIM parameter XL
Ignoring BSIM parameter XW
Ignoring BSIM parameter XL
Ignoring BSIM parameter XW
Ignoring BSIM parameter XL
Ignoring BSIM parameter XW
Ignoring BSIM parameter XL
Ignoring BSIM parameter XW
Ignoring BSIM parameter XL
Ignoring BSIM parameter XW
Ignoring BSIM parameter XL
Ignoring BSIM parameter XW
Ignoring BSIM parameter XL
Ignoring BSIM parameter XW
Ignoring BSIM parameter XL
Ignoring BSIM parameter XW
Ignoring BSIM parameter XL
Ignoring BSIM parameter XW
WARNING: Less than two connections to node VOR.  This node is used by A:X2:1.
WARNING: Less than two connections to node VAND.  This node is used by A:X5:1.
Warning: Pd = 0 is less than W.
Warning: Ps = 0 is less than W.
Warning: Pd = 0 is less than W.
Warning: Ps = 0 is less than W.
Warning: Pd = 0 is less than W.
Warning: Ps = 0 is less than W.
Warning: Pd = 0 is less than W.
Warning: Ps = 0 is less than W.
Warning: Pd = 0 is less than W.
Warning: Ps = 0 is less than W.
Warning: Pd = 0 is less than W.
Warning: Ps = 0 is less than W.
Warning: Pd = 0 is less than W.
Warning: Ps = 0 is less than W.
Warning: Pd = 0 is less than W.
Warning: Ps = 0 is less than W.
Warning: Pd = 0 is less than W.
Warning: Ps = 0 is less than W.
Warning: Pd = 0 is less than W.
Warning: Ps = 0 is less than W.
Direct Newton iteration for .op point succeeded.

Date: Mon Jan 18 20:42:58 2021
Total elapsed time: 0.332 seconds.

tnom = 27
temp = 27
method = modified trap
totiter = 10236
traniter = 10222
tranpoints = 3789
accept = 3096
rejected = 693
matrix size = 23
fillins = 0
solver = Normal
Thread vector: 12.6/8.1[2] 2.3/2.4[1] 0.9/1.3[1] 0.1/1.0[1]  2592/500
Matrix Compiler1: 1.57 KB object code size  0.3/0.2/[0.1]
Matrix Compiler2: 2.35 KB object code size  0.2/0.3/[0.2]

