Circuit: * Z:\home\sdanthinne\Documents\307\computer\gateTransistorModels\inverterComparison.asc

V1: Missing value, assumed 0V @ DC

vilcmos: v1=3.09551 at 3.09551
vmcmos: v1=3.13485 at 3.13485
vmrtl: v1=3.54104 at 3.54104
vohcmos: v(voutcmos)=5.96392 at 3.09551
vihcmos: v1=3.16813 at 3.16813
volcmos: v(voutcmos)=0.0398105 at 3.16813
vilrtl: v1=3.0599 at 3.0599
vohrtl: v(voutrtl)=5.96985 at 3.0599
vihrtl: v1=3.91769 at 3.91769
volrtl: v(voutrtl)=0.48665 at 3.91769


Date: Thu Jan 21 09:56:25 2021
Total elapsed time: 0.188 seconds.

tnom = 27
temp = 27
method = trap
totiter = 2048
traniter = 0
tranpoints = 0
accept = 0
rejected = 0
matrix size = 6
fillins = 0
solver = Normal
Matrix Compiler1: 200 bytes object code size  0.2/0.1/[0.1]
Matrix Compiler2: 436 bytes object code size  0.2/0.2/[0.1]

