Circuit: * Z:\home\sdanthinne\Documents\307\gateTransistorModels\mult_test.asc

Warning: Multiple definitions of model "cd4007ube" Type: Mos1
Warning: Multiple definitions of model "cd4007" Type: Mos1
Ignoring BSIM parameter XL
Ignoring BSIM parameter XW
Ignoring BSIM parameter XL
Ignoring BSIM parameter XW
WARNING: Node X1:N022 is floating.

Warning: Pd = 0 is less than W.
Warning: Ps = 0 is less than W.
Warning: Pd = 0 is less than W.
Warning: Ps = 0 is less than W.
Early termination of direct N-R iteration.
Direct Newton iteration failed to find .op point.  (Use ".option noopiter" to skip.)
Starting Gmin stepping
Gmin = 10
Gmin = 1.07374
Gmin = 0.115292
Gmin = 0.0123794
Gmin = 0.00132923
Gmin = 0.000142725
Gmin = 1.5325e-005
Gmin = 1.6455e-006
Gmin = 1.76685e-007
Gmin = 1.89714e-008
Gmin = 2.03704e-009
Gmin = 2.18725e-010
Gmin = 2.34854e-011
Gmin = 2.52173e-012
Gmin = 2.70769e-013
Gmin = 0
Gmin stepping succeeded in finding the operating point.

Heightened Def Con from 1.00001e-006 to 1.00005e-006
Heightened Def Con from 2.00001e-006 to 2.00005e-006
Heightened Def Con from 3.00001e-006 to 3.00005e-006
Heightened Def Con from 5.00001e-006 to 5.00005e-006
Heightened Def Con from 6.00001e-006 to 6.00005e-006
Heightened Def Con from 7.00001e-006 to 7.00005e-006
Heightened Def Con from 8.00017e-006 ++++++++++++++++++++++++++++++++++to 8.00031e-006
Heightened Def Con from 9.00001e-006 to 9.00005e-006
Heightened Def Con from 1e-005 to 1.00001e-005
Heightened Def Con from 1.1e-005 to 1.10001e-005
Heightened Def Con from 1.3e-005 to 1.30001e-005
Heightened Def Con from 1.4e-005 to 1.40001e-005
Heightened Def Con from 1.5e-005 to 1.50001e-005
Heightened Def Con from 1.6e-005 to 1.6e-005
Heightened Def Con from 1.6e-005 to 1.6e-005
Heightened Def Con from 1.7e-005 to 1.7e-005
Heightened Def Con from 1.8e-005 to 1.80001e-005
Heightened Def Con from 1.9e-005 to 1.9e-005
Heightened Def Con from 2.1e-005 to 2.1e-005
Heightened Def Con from 2.2e-005 to 2.20001e-005
Heightened Def Con from 2.40002e-005 to 2.40003e-005
Heightened Def Con from 2.60002e-005 to 2.60002e-005
Heightened Def Con from 2.80002e-005 to 2.80002e-005
Heightened Def Con from 2.9e-005 to 2.9e-005
Heightened Def Con from 3e-005 to 3.00001e-005
Heightened Def Con from 3.1e-005 to 3.1e-005
Heightened Def Con from 3.2e-005 to 3.20001e-005
Heightened Def Con from 3.3e-005 to 3.3e-005
Heightened Def Con from 3.4e-005 to 3.4e-005
Heightened Def Con from 3.5e-005 to 3.5e-005
Heightened Def Con from 3.7e-005 to 3.7e-005
Heightened Def Con from 3.8e-005 to 3.8e-005
Heightened Def Con from 4.3e-005 to 4.3e-005
Heightened Def Con from 4.8e-005 to 4.8e-005
Heightened Def Con from 5.1e-005 to 5.1e-005
Heightened Def Con from 5.9e-005 to 5.9e-005
Heightened Def Con from 6.1e-005 to 6.1e-005
Heightened Def Con from 6.2e-005 to 6.2e-005
Heightened Def Con from 6.3e-005 to 6.3e-005
Heightened Def Con from 6.4e-005 to 6.4e-005
Heightened Def Con from 6.5e-005 to 6.5e-005
Heightened Def Con from 6.6e-005 to 6.6e-005
Heightened Def Con from 7.1e-005 to 7.1e-005
Heightened Def Con from 7.3e-005 to 7.3e-005
Heightened Def Con from 7.9e-005 to 7.9e-005
Heightened Def Con from 8e-005 to 8e-005
Heightened Def Con from 8.1e-005 to 8.1e-005
Heightened Def Con from 8.2e-005 to 8.2e-005
Heightened Def Con from 8.5e-005 to 8.5e-005
Heightened Def Con from 8.6e-005 to 8.6e-005
Heightened Def Con from 8.7e-005 to 8.7e-005
Heightened Def Con from 8.9e-005 to 8.9e-005
Heightened Def Con from 9.1e-005 to 9.1e-005
Heightened Def Con from 9.6e-005 to 9.6e-005
Heightened Def Con from 9.7e-005 to 9.7e-005
Heightened Def Con from 9.8e-005 to 9.8e-005
Heightened Def Con from 0.000107 to 0.000107
Heightened Def Con from 0.000112 to 0.000112
Heightened Def Con from 0.000117 to 0.000117
Heightened Def Con from 0.000118 to 0.000118
Heightened Def Con from 0.000119 to 0.000119
Heightened Def Con from 0.000123 to 0.000123
Heightened Def Con from 0.000125 to 0.000125
Heightened Def Con from 0.000126 to 0.000126
Heightened Def Con from 0.000127 to 0.000127
Heightened Def Con from 0.000129 to 0.000129
Heightened Def Con from 0.00013 to 0.00013
Heightened Def Con from 0.000132 to 0.000132
Heightened Def Con from 0.000133 to 0.000133
Heightened Def Con from 0.000134 to 0.000134
Heightened Def Con from 0.000135 to 0.000135
Heightened Def Con from 0.000136 to 0.000136
Heightened Def Con from 0.000137 to 0.000137
Heightened Def Con from 0.000138 to 0.000138
Heightened Def Con from 0.000139 to 0.000139
Heightened Def Con from 0.00014 to 0.00014
Heightened Def Con from 0.000141 to 0.000141
Heightened Def Con from 0.000142 to 0.000142
Heightened Def Con from 0.000144 to 0.000144
Heightened Def Con from 0.000144 to 0.000144
Heightened Def Con from 0.000145 to 0.000145
Heightened Def Con from 0.000146 to 0.000146
Heightened Def Con from 0.000147 to 0.000147
Heightened Def Con from 0.000148 to 0.000148
Heightened Def Con from 0.000149 to 0.000149
Heightened Def Con from 0.00015 to 0.00015
Heightened Def Con from 0.000151 to 0.000151
Heightened Def Con from 0.000152 to 0.000152
Heightened Def Con from 0.000153 to 0.000153
Heightened Def Con from 0.000154 to 0.000154
Heightened Def Con from 0.000155 to 0.000155
Heightened Def Con from 0.000156 to 0.000156
Heightened Def Con from 0.000157 to 0.000157
Heightened Def Con from 0.000159 to 0.000159
Heightened Def Con from 0.00016 to 0.00016
Heightened Def Con from 0.000161 to 0.000161
Heightened Def Con from 0.000162 to 0.000162
Heightened Def Con from 0.000163 to 0.000163
Heightened Def Con from 0.000164 to 0.000164
Heightened Def Con from 0.000165 to 0.000165
Heightened Def Con from 0.000166 to 0.000166
Heightened Def Con from 0.000167 to 0.000167
Heightened Def Con from 0.000168 to 0.000168
Heightened Def Con from 0.000169 to 0.000169
Heightened Def Con from 0.00017 to 0.00017
Heightened Def Con from 0.000171 to 0.000171
Heightened Def Con from 0.000172 to 0.000172
Heightened Def Con from 0.000175 to 0.000175
Heightened Def Con from 0.000176 to 0.000176
Heightened Def Con from 0.000176 to 0.000176
Heightened Def Con from 0.000177 to 0.000177
Heightened Def Con from 0.000178 to 0.000178
Heightened Def Con from 0.000179 to 0.000179
Heightened Def Con from 0.00018 to 0.00018
Heightened Def Con from 0.000181 to 0.000181
Heightened Def Con from 0.000182 to 0.000182
Heightened Def Con from 0.000183 to 0.000183
Heightened Def Con from 0.000184 to 0.000184
Heightened Def Con from 0.000185 to 0.000185
Heightened Def Con from 0.000186 to 0.000186
Heightened Def Con from 0.000189 to 0.000189
Heightened Def Con from 0.00019 to 0.00019
Heightened Def Con from 0.000191 to 0.000191
Heightened Def Con from 0.000192 to 0.000192
Heightened Def Con from 0.000193 to 0.000193
Heightened Def Con from 0.000194 to 0.000194
Heightened Def Con from 0.000195 to 0.000195
Heightened Def Con from 0.000196 to 0.000196
Heightened Def Con from 0.000197 to 0.000197
Heightened Def Con from 0.000198 to 0.000198
Heightened Def Con from 0.000201 to 0.000201
Heightened Def Con from 0.000202 to 0.000202
Heightened Def Con from 0.000203 to 0.000203
Heightened Def Con from 0.000204 to 0.000204
Heightened Def Con from 0.000205 to 0.000205
Heightened Def Con from 0.000206 to 0.000206
Heightened Def Con from 0.000207 to 0.000207
Heightened Def Con from 0.000208 to 0.000208
Heightened Def Con from 0.000208 to 0.000208
Heightened Def Con from 0.000209 to 0.000209
Heightened Def Con from 0.00021 to 0.00021
Heightened Def Con from 0.000211 to 0.000211
Heightened Def Con from 0.000212 to 0.000212
Heightened Def Con from 0.000215 to 0.000215
Heightened Def Con from 0.000217 to 0.000217
Heightened Def Con from 0.000218 to 0.000218
Heightened Def Con from 0.000219 to 0.000219
Heightened Def Con from 0.00022 to 0.00022
Heightened Def Con from 0.000221 to 0.000221
Heightened Def Con from 0.000222 to 0.000222
Heightened Def Con from 0.000223 to 0.000223
Heightened Def Con from 0.000224 to 0.000224
Heightened Def Con from 0.000225 to 0.000225
Heightened Def Con from 0.000227 to 0.000227
Heightened Def Con from 0.000229 to 0.000229
Heightened Def Con from 0.000231 to 0.000231
Heightened Def Con from 0.000233 to 0.000233
Heightened Def Con from 0.000235 to 0.000235
Heightened Def Con from 0.000237 to 0.000237
Heightened Def Con from 0.000239 to 0.000239
Heightened Def Con from 0.00024 to 0.00024
Heightened Def Con from 0.00024 to 0.00024

Date: Sun Feb 07 19:15:51 2021
Total elapsed time: 66.266 seconds.

tnom = 27
temp = 27
method = modified trap
totiter = 488642
traniter = 488291
tranpoints = 146776
accept = 104939
rejected = 42033
matrix size = 424
fillins = 628
solver = Normal
Thread vector: 221.1/70.4[12] 98.3/16.8[12] 41.9/10.0[12] 2.0/2.6[1]  2592/500
Matrix Compiler1: 100.29 KB object code size  23.0/9.0/[5.8]
Matrix Compiler2: 66.00 KB object code size  12.4/8.5/[3.3]

