Circuit: * Z:\home\sdanthinne\Documents\307\gateTransistorModels\mult_test.asc

Warning: Multiple definitions of model "cd4007ube" Type: Mos1
Warning: Multiple definitions of model "cd4007" Type: Mos1
Ignoring BSIM parameter XL
Ignoring BSIM parameter XW
Ignoring BSIM parameter XL
Ignoring BSIM parameter XW
Warning: Pd = 0 is less than W.
Warning: Ps = 0 is less than W.
Warning: Pd = 0 is less than W.
Warning: Ps = 0 is less than W.
Early termination of direct N-R iteration.
Direct Newton iteration failed to find .op point.  (Use ".option noopiter" to skip.)
Starting Gmin stepping
Gmin = 10
Gmin = 1.07374
Gmin = 0.115292
Gmin = 0.0123794
Gmin = 0.00132923
Gmin = 0.000142725
Gmin = 1.5325e-005
Gmin = 1.6455e-006
Gmin = 1.76685e-007
Gmin = 1.89714e-008
Gmin = 2.03704e-009
Gmin = 2.18725e-010
Gmin = 2.34854e-011
Gmin = 2.52173e-012
Gmin = 2.70769e-013
Gmin = 0
Gmin stepping succeeded in finding the operating point.

Heightened Def Con from 2e-006 to 2.00005e-006
Heightened Def Con from 3.00002e-006 to 3.00003e-006
Heightened Def Con from 4e-006 to 4.00001e-006
Heightened Def Con from 4.00002e-006 to 4.00006e-006
Heightened Def Con from 5.00002e-006 to 5.00003e-006
Heightened Def Con from 6e-006 to 6.00003e-006
Heightened Def Con from 6.0002e-006 to 6.00021e-006
Heightened Def Con from 7.00002e-006 to 7.00815e-006
Heightened Def Con from 8e-006 to 8.00002e-006
Heightened Def Con from 8.00016e-006 ++++++++++++++++++++++++++++++++++to 8.00016e-006
Heightened Def Con from 8.00018e-006 to 8.00018e-006
Heightened Def Con from 9.00002e-006 to 9.00715e-006
Heightened Def Con from 1e-005 to 1.00002e-005
Heightened Def Con from 1.00002e-005 to 1.00012e-005
Heightened Def Con from 1.1e-005 to 1.1e-005
Heightened Def Con from 1.2e-005 to 1.20001e-005
Heightened Def Con from 1.3e-005 to 1.30071e-005
Heightened Def Con from 1.5e-005 to 1.5e-005
Heightened Def Con from 1.6e-005 to 1.6e-005
Heightened Def Con from 1.7e-005 to 1.7e-005
Heightened Def Con from 1.8e-005 to 1.80008e-005
Heightened Def Con from 1.9e-005 to 1.9e-005
Heightened Def Con from 2e-005 to 2.00002e-005
Heightened Def Con from 2.2e-005 to 2.20003e-005
Heightened Def Con from 2.3e-005 to 2.30001e-005
Heightened Def Con from 2.40002e-005 to 2.40004e-005
Heightened Def Con from 2.5e-005 to 2.5e-005
Heightened Def Con from 2.6e-005 to 2.60002e-005
Heightened Def Con from 2.60002e-005 to 2.60013e-005
Heightened Def Con from 2.8e-005 to 2.8e-005
Heightened Def Con from 2.9e-005 to 2.90005e-005
Heightened Def Con from 3.1e-005 to 3.10005e-005
Heightened Def Con from 3.2e-005 to 3.2e-005
Heightened Def Con from 3.3e-005 to 3.3e-005
Heightened Def Con from 3.4e-005 to 3.4e-005
Heightened Def Con from 3.5e-005 to 3.50005e-005
Heightened Def Con from 3.8e-005 to 3.80002e-005
Heightened Def Con from 4e-005 to 4.00001e-005
Heightened Def Con from 4.1e-005 to 4.1e-005
Heightened Def Con from 4.2e-005 to 4.20002e-005
Heightened Def Con from 4.3e-005 to 4.30005e-005
Heightened Def Con from 4.4e-005 to 4.40001e-005
Heightened Def Con from 4.5e-005 to 4.50005e-005
Heightened Def Con from 4.6e-005 to 4.60008e-005
Heightened Def Con from 4.7e-005 to 4.7e-005
Heightened Def Con from 4.8e-005 to 4.8e-005
Heightened Def Con from 4.9e-005 to 4.9e-005
Heightened Def Con from 5e-005 to 5.00008e-005
Heightened Def Con from 5.4e-005 to 5.40002e-005
Heightened Def Con from 5.5e-005 to 5.50005e-005
Heightened Def Con from 5.6e-005 to 5.60001e-005
Heightened Def Con from 5.7e-005 to 5.7e-005
Heightened Def Con from 5.8e-005 to 5.8e-005
Heightened Def Con from 5.9e-005 to 5.90005e-005
Heightened Def Con from 6e-005 to 6.00002e-005
Heightened Def Con from 6.1e-005 to 6.10005e-005
Heightened Def Con from 6.3e-005 to 6.30001e-005
Heightened Def Con from 6.4e-005 to 6.40001e-005
Heightened Def Con from 6.5e-005 to 6.50071e-005
Heightened Def Con from 6.6e-005 to 6.6e-005
Heightened Def Con from 6.8e-005 to 6.80008e-005
Heightened Def Con from 7e-005 to 7.00008e-005
Heightened Def Con from 7.1e-005 to 7.1e-005
Heightened Def Con from 7.3e-005 to 7.3e-005
Heightened Def Con from 7.4e-005 to 7.40008e-005
Heightened Def Con from 7.7e-005 to 7.7e-005
Heightened Def Con from 7.8e-005 to 7.8e-005
Heightened Def Con from 8.2e-005 to 8.2e-005
Heightened Def Con from 8.3e-005 to 8.30001e-005
Heightened Def Con from 8.4e-005 to 8.40001e-005
Heightened Def Con from 8.5e-005 to 8.50006e-005
Heightened Def Con from 8.6e-005 to 8.60001e-005
Heightened Def Con from 8.7e-005 to 8.70001e-005
Heightened Def Con from 8.9e-005 to 8.9e-005
Heightened Def Con from 9.1e-005 to 9.10001e-005
Heightened Def Con from 9.2e-005 to 9.2e-005
Heightened Def Con from 9.4e-005 to 9.40001e-005
Heightened Def Con from 9.5e-005 to 9.5e-005
Heightened Def Con from 9.7e-005 to 9.7e-005
Heightened Def Con from 9.8e-005 to 9.80001e-005
Heightened Def Con from 0.0001 to 0.0001
Heightened Def Con from 0.000102 to 0.000102
Heightened Def Con from 0.000103 to 0.000103
Heightened Def Con from 0.000105 to 0.000105
Heightened Def Con from 0.000107 to 0.000107
Heightened Def Con from 0.000108 to 0.000108001
Heightened Def Con from 0.000109 to 0.000109001
Heightened Def Con from 0.00011 to 0.00011
Heightened Def Con from 0.000111 to 0.000111
Heightened Def Con from 0.000113 to 0.000113
Heightened Def Con from 0.000113 to 0.000113
Heightened Def Con from 0.000115 to 0.000115001
Heightened Def Con from 0.000116 to 0.000116
Heightened Def Con from 0.000117 to 0.000117001
Heightened Def Con from 0.000118 to 0.000118
Heightened Def Con from 0.000119 to 0.000119001
Heightened Def Con from 0.00012 to 0.000120001
Heightened Def Con from 0.000121 to 0.000121
Heightened Def Con from 0.000122 to 0.000122
Heightened Def Con from 0.000123 to 0.000123
Heightened Def Con from 0.000127 to 0.000127001
Heightened Def Con from 0.000129 to 0.000129
Heightened Def Con from 0.00013 to 0.00013
Heightened Def Con from 0.000131 to 0.000131001
Heightened Def Con from 0.000132 to 0.000132
Heightened Def Con from 0.000132 to 0.000132
Heightened Def Con from 0.000133 to 0.000133
Heightened Def Con from 0.000134 to 0.000134
Heightened Def Con from 0.000135 to 0.000135
Heightened Def Con from 0.000138 to 0.000138
Heightened Def Con from 0.000139 to 0.000139
Heightened Def Con from 0.00014 to 0.00014
Heightened Def Con from 0.00014 to 0.00014
Heightened Def Con from 0.00014 to 0.000140001
Heightened Def Con from 0.000141 to 0.000141
Heightened Def Con from 0.000142 to 0.000142
Heightened Def Con from 0.000143 to 0.000143008
Heightened Def Con from 0.000144 to 0.000144
Heightened Def Con from 0.000146 to 0.000146
Heightened Def Con from 0.000148 to 0.000148
Heightened Def Con from 0.000149 to 0.000149001
Heightened Def Con from 0.00015 to 0.00015
Heightened Def Con from 0.000151 to 0.000151
Heightened Def Con from 0.000152 to 0.000152
Heightened Def Con from 0.000154 to 0.000154
Heightened Def Con from 0.000156 to 0.000156
Heightened Def Con from 0.000158 to 0.000158
Heightened Def Con from 0.000161 to 0.000161
Heightened Def Con from 0.000162 to 0.000162
Heightened Def Con from 0.000164 to 0.000164
Heightened Def Con from 0.000165 to 0.000165001
Heightened Def Con from 0.000166 to 0.000166
Heightened Def Con from 0.00017 to 0.00017
Heightened Def Con from 0.000171 to 0.000171001
Heightened Def Con from 0.000172 to 0.000172
Heightened Def Con from 0.000172 to 0.000172
Heightened Def Con from 0.000174 to 0.000174001
Heightened Def Con from 0.000176 to 0.000176
Heightened Def Con from 0.00018 to 0.00018
Heightened Def Con from 0.000182 to 0.000182
Heightened Def Con from 0.000184 to 0.000184001
Heightened Def Con from 0.000186 to 0.000186001
Heightened Def Con from 0.000188 to 0.000188
Heightened Def Con from 0.000192 to 0.000192
Heightened Def Con from 0.000194 to 0.000194001
Heightened Def Con from 0.000195 to 0.000195001
Heightened Def Con from 0.000197 to 0.000197001
Heightened Def Con from 0.000199 to 0.000199008
Heightened Def Con from 0.000202 to 0.000202001
Heightened Def Con from 0.000203 to 0.000203001
Heightened Def Con from 0.000204 to 0.000204001
Heightened Def Con from 0.000205 to 0.000205
Heightened Def Con from 0.000206 to 0.000206001
Heightened Def Con from 0.000209 to 0.000209
Heightened Def Con from 0.00021 to 0.00021
Heightened Def Con from 0.000211 to 0.000211
Heightened Def Con from 0.000212 to 0.000212
Heightened Def Con from 0.000213 to 0.000213001
Heightened Def Con from 0.000214 to 0.000214
Heightened Def Con from 0.000215 to 0.000215
Heightened Def Con from 0.000218 to 0.000218
Heightened Def Con from 0.000219 to 0.000219
Heightened Def Con from 0.000221 to 0.000221
Heightened Def Con from 0.000222 to 0.000222
Heightened Def Con from 0.000223 to 0.000223001
Heightened Def Con from 0.000225 to 0.000225001
Heightened Def Con from 0.000227 to 0.000227
Heightened Def Con from 0.000229 to 0.000229001
Heightened Def Con from 0.000231 to 0.000231
Heightened Def Con from 0.000233 to 0.000233
Heightened Def Con from 0.000234 to 0.000234
Heightened Def Con from 0.000235 to 0.000235001
Heightened Def Con from 0.000236 to 0.000236
Heightened Def Con from 0.000237 to 0.000237001
Heightened Def Con from 0.000238 to 0.000238001
Heightened Def Con from 0.000241 to 0.000241

Date: Mon Feb 08 07:20:12 2021
Total elapsed time: 68.286 seconds.

tnom = 27
temp = 27
method = modified trap
totiter = 445589
traniter = 445239
tranpoints = 129881
accept = 92431
rejected = 37660
matrix size = 424
fillins = 642
solver = Normal
Thread vector: 261.3/100.0[12] 159.4/37.4[12] 34.0/11.5[12] 2.3/9.1[1]  2592/500
Matrix Compiler1: 101.68 KB object code size  23.6/9.1/[6.0]
Matrix Compiler2: 66.46 KB object code size  12.4/12.0/[4.2]

