Circuit: * Z:\home\sdanthinne\Documents\307\computer\gateTransistorModels\mult_test.asc

Warning: Multiple definitions of model "cd4007ube" Type: Mos1
Warning: Multiple definitions of model "cd4007" Type: Mos1
Ignoring BSIM parameter XL
Ignoring BSIM parameter XW
Ignoring BSIM parameter XL
Ignoring BSIM parameter XW
WARNING: Node X1:N022 is floating.

Warning: Pd = 0 is less than W.
Warning: Ps = 0 is less than W.
Warning: Pd = 0 is less than W.
Warning: Ps = 0 is less than W.
Early termination of direct N-R iteration.
Direct Newton iteration failed to find .op point.  (Use ".option noopiter" to skip.)
Starting Gmin stepping
Gmin = 10
Gmin = 1.07374
Gmin = 0.115292
Gmin = 0.0123794
Gmin = 0.00132923
Gmin = 0.000142725
Gmin = 1.5325e-005
Gmin = 1.6455e-006
Gmin = 1.76685e-007
Gmin = 1.89714e-008
Gmin = 2.03704e-009
Gmin = 2.18725e-010
Gmin = 2.34854e-011
Gmin = 2.52173e-012
Gmin = 2.70769e-013
Gmin = 0
Gmin stepping succeeded in finding the operating point.

Heightened Def Con from 1.00001e-006 to 1.00005e-006
Heightened Def Con from 2.00001e-006 to 2.00005e-006
Heightened Def Con from 3.00001e-006 to 3.00005e-006
Heightened Def Con from 5.00001e-006 to 5.00005e-006
Heightened Def Con from 6.00001e-006 to 6.00005e-006
Heightened Def Con from 7.00001e-006 to 7.00005e-006
Heightened Def Con from 8.00016e-006 to 8.00033e-006
Heightened Def Con from 9.00001e-006 to 9.00005e-006
Heightened Def Con from 1e-005 to 1.00001e-005
Heightened Def Con from 1.00002e-005 to 1.00002e-005
Heightened Def Con from 1.1e-005 to 1.10001e-005
Heightened Def Con from 1.3e-005 to 1.30001e-005
Heightened Def Con from 1.4e-005 to 1.40001e-005
Heightened Def Con from 1.5e-005 to 1.50001e-005
Heightened Def Con from 1.6e-005 to 1.6e-005
Heightened Def Con from 1.6e-005 to 1.6e-005
Heightened Def Con from 2.1e-005 to 2.1e-005
Heightened Def Con from 2.2e-005 to 2.20001e-005
Heightened Def Con from 2.40002e-005 +++++++++++++++++++++++++++++++++++to 2.40004e-005
Heightened Def Con from 2.5e-005 to 2.5e-005
Heightened Def Con from 2.6e-005 to 2.60001e-005
Heightened Def Con from 2.60002e-005 to 2.60015e-005
Heightened Def Con from 2.80002e-005 ++++to 2.80002e-005
Heightened Def Con from 2.80002e-005 ++++++++++++++++++++++++++++++++++to 2.80003e-005
Heightened Def Con from 2.9e-005 to 2.9e-005
Heightened Def Con from 3e-005 to 3.00001e-005
Heightened Def Con from 3.1e-005 to 3.1e-005
Heightened Def Con from 3.5e-005 to 3.5e-005
Heightened Def Con from 3.7e-005 to 3.7e-005
Heightened Def Con from 3.8e-005 to 3.8e-005
Heightened Def Con from 4.1e-005 to 4.1e-005
Heightened Def Con from 4.2e-005 to 4.2e-005
Heightened Def Con from 4.7e-005 to 4.7e-005
Heightened Def Con from 4.8e-005 to 4.8e-005
Heightened Def Con from 5.3e-005 to 5.3e-005
Heightened Def Con from 5.5e-005 to 5.5e-005
Heightened Def Con from 5.7e-005 to 5.7e-005
Heightened Def Con from 5.8e-005 to 5.8e-005
Heightened Def Con from 6.4e-005 to 6.4e-005
Heightened Def Con from 6.7e-005 to 6.7e-005

Date: Fri Feb 19 08:03:53 2021
Total elapsed time: 60.539 seconds.

tnom = 27
temp = 27
method = modified trap
totiter = 178210
traniter = 177859
tranpoints = 51266
accept = 35910
rejected = 15469
matrix size = 424
fillins = 628
solver = Normal
Thread vector: 437.5/303.0[4] 212.4/42.7[4] 40.6/20.4[4] 5.2/4.4[3]  2592/500
Matrix Compiler1: 100.29 KB object code size  55.6/28.7/[13.3]
Matrix Compiler2: 66.00 KB object code size  23.7/22.6/[6.3]

