Circuit: * Z:\home\sdanthinne\Documents\307\gateTransistorModels\mux_test.asc

Warning: Multiple definitions of model "cd4007ube" Type: Mos1
Warning: Multiple definitions of model "cd4007" Type: Mos1
Warning: Multiple definitions of model "x1:x3:cd4007ube" Type: Mos1
Warning: Multiple definitions of model "x1:x3:cd4007" Type: Mos1
Ignoring BSIM parameter XL
Ignoring BSIM parameter XW
Ignoring BSIM parameter XL
Ignoring BSIM parameter XW
Ignoring BSIM parameter XL
Ignoring BSIM parameter XW
Ignoring BSIM parameter XL
Ignoring BSIM parameter XW
Warning: Pd = 0 is less than W.
Warning: Ps = 0 is less than W.
Warning: Pd = 0 is less than W.
Warning: Ps = 0 is less than W.
Warning: Pd = 0 is less than W.
Warning: Ps = 0 is less than W.
Warning: Pd = 0 is less than W.
Warning: Ps = 0 is less than W.
Direct Newton iteration for .op point succeeded.
Heightened Def Con from 3.70506e-010 +++++++++++++++++++to 8.37051e-009
Heightened Def Con from 1e-006 to 1e-006
Heightened Def Con from 4e-006 to 4e-006
Heightened Def Con from 4e-006 to 4.00075e-006
Heightened Def Con from 5e-006 to 5e-006
Heightened Def Con from 9e-006 to 9e-006
Heightened Def Con from 1.2e-005 to 1.2e-005
Heightened Def Con from 1.2e-005 to 1.20008e-005
Heightened Def Con from 1.3e-005 to 1.3e-005

Date: Mon Feb 08 16:49:44 2021
Total elapsed time: 0.173 seconds.

tnom = 27
temp = 27
method = modified trap
totiter = 11748
traniter = 11726
tranpoints = 3165
accept = 2513
rejected = 680
matrix size = 18
fillins = 4
solver = Normal
Matrix Compiler1: 1.24 KB object code size  0.2/0.1/[0.1]
Matrix Compiler2: 1.85 KB object code size  0.2/0.2/[0.1]

