Circuit: * Z:\home\sdanthinne\Documents\307\gateTransistorModels\pc_test.asc

Warning: Multiple definitions of model "cd4007ube" Type: Mos1
Warning: Multiple definitions of model "cd4007" Type: Mos1
Warning: Multiple definitions of model "x1:x3:x5:cd4007ube" Type: Mos1
Warning: Multiple definitions of model "x1:x3:x5:cd4007" Type: Mos1
Warning: Multiple definitions of model "x1:x3:x4:cd4007ube" Type: Mos1
Warning: Multiple definitions of model "x1:x3:x4:cd4007" Type: Mos1
Warning: Multiple definitions of model "x1:x3:x3:cd4007ube" Type: Mos1
Warning: Multiple definitions of model "x1:x3:x3:cd4007" Type: Mos1
Warning: Multiple definitions of model "x1:x3:x2:cd4007ube" Type: Mos1
Warning: Multiple definitions of model "x1:x3:x2:cd4007" Type: Mos1
Warning: Multiple definitions of model "x1:x2:x5:cd4007ube" Type: Mos1
Warning: Multiple definitions of model "x1:x2:x5:cd4007" Type: Mos1
Warning: Multiple definitions of model "x1:x2:x4:cd4007ube" Type: Mos1
Warning: Multiple definitions of model "x1:x2:x4:cd4007" Type: Mos1
Warning: Multiple definitions of model "x1:x2:x3:cd4007ube" Type: Mos1
Warning: Multiple definitions of model "x1:x2:x3:cd4007" Type: Mos1
Warning: Multiple definitions of model "x1:x2:x2:cd4007ube" Type: Mos1
Warning: Multiple definitions of model "x1:x2:x2:cd4007" Type: Mos1
Warning: Multiple definitions of model "x1:x1:x5:cd4007ube" Type: Mos1
Warning: Multiple definitions of model "x1:x1:x5:cd4007" Type: Mos1
Warning: Multiple definitions of model "x1:x1:x4:cd4007ube" Type: Mos1
Warning: Multiple definitions of model "x1:x1:x4:cd4007" Type: Mos1
Warning: Multiple definitions of model "x1:x1:x3:cd4007ube" Type: Mos1
Warning: Multiple definitions of model "x1:x1:x3:cd4007" Type: Mos1
Warning: Multiple definitions of model "x1:x1:x2:cd4007ube" Type: Mos1
Warning: Multiple definitions of model "x1:x1:x2:cd4007" Type: Mos1
Warning: Multiple definitions of model "x1:x11:cd4007ube" Type: Mos1
Warning: Multiple definitions of model "x1:x11:cd4007" Type: Mos1
Warning: Multiple definitions of model "x1:x4:cd4007ube" Type: Mos1
Warning: Multiple definitions of model "x1:x4:cd4007" Type: Mos1
Warning: Multiple definitions of model "x1:x7:cd4007ube" Type: Mos1
Warning: Multiple definitions of model "x1:x7:cd4007" Type: Mos1
Ignoring BSIM parameter XL
Ignoring BSIM parameter XW
Ignoring BSIM parameter XL
Ignoring BSIM parameter XW
Ignoring BSIM parameter XL
Ignoring BSIM parameter XW
Ignoring BSIM parameter XL
Ignoring BSIM parameter XW
Ignoring BSIM parameter XL
Ignoring BSIM parameter XW
Ignoring BSIM parameter XL
Ignoring BSIM parameter XW
Ignoring BSIM parameter XL
Ignoring BSIM parameter XW
Ignoring BSIM parameter XL
Ignoring BSIM parameter XW
Ignoring BSIM parameter XL
Ignoring BSIM parameter XW
Ignoring BSIM parameter XL
Ignoring BSIM parameter XW
Ignoring BSIM parameter XL
Ignoring BSIM parameter XW
Ignoring BSIM parameter XL
Ignoring BSIM parameter XW
Ignoring BSIM parameter XL
Ignoring BSIM parameter XW
Ignoring BSIM parameter XL
Ignoring BSIM parameter XW
Ignoring BSIM parameter XL
Ignoring BSIM parameter XW
Ignoring BSIM parameter XL
Ignoring BSIM parameter XW
Ignoring BSIM parameter XL
Ignoring BSIM parameter XW
Ignoring BSIM parameter XL
Ignoring BSIM parameter XW
Ignoring BSIM parameter XL
Ignoring BSIM parameter XW
Ignoring BSIM parameter XL
Ignoring BSIM parameter XW
Ignoring BSIM parameter XL
Ignoring BSIM parameter XW
Ignoring BSIM parameter XL
Ignoring BSIM parameter XW
Ignoring BSIM parameter XL
Ignoring BSIM parameter XW
Ignoring BSIM parameter XL
Ignoring BSIM parameter XW
Ignoring BSIM parameter XL
Ignoring BSIM parameter XW
Ignoring BSIM parameter XL
Ignoring BSIM parameter XW
Ignoring BSIM parameter XL
Ignoring BSIM parameter XW
Ignoring BSIM parameter XL
Ignoring BSIM parameter XW
Ignoring BSIM parameter XL
Ignoring BSIM parameter XW
Ignoring BSIM parameter XL
Ignoring BSIM parameter XW
Ignoring BSIM parameter XL
Ignoring BSIM parameter XW
Ignoring BSIM parameter XL
Ignoring BSIM parameter XW
Unknown node in .ic card: "x1:n[0]" -- ignoring
Unknown node in .ic card: "x1:n[1]" -- ignoring
Unknown node in .ic card: "x1:n[2]" -- ignoring
Unknown node in .ic card: "x3:bl8" -- ignoring
Unknown node in .ic card: "x3:bl7" -- ignoring
Unknown node in .ic card: "x3:bl6" -- ignoring
Unknown node in .ic card: "x3:bl5" -- ignoring
Unknown node in .ic card: "x3:bl4" -- ignoring
Unknown node in .ic card: "x3:bl3" -- ignoring
Unknown node in .ic card: "x3:bl2" -- ignoring
Unknown node in .ic card: "x3:bl1" -- ignoring
Unknown node in .ic card: "x3:bl0" -- ignoring
WARNING: Less than two connections to node ROM[2].  This node is used by R:X3:9.
Warning: Pd = 0 is less than W.
Warning: Ps = 0 is less than W.
Warning: Pd = 0 is less than W.
Warning: Ps = 0 is less than W.
Warning: Pd = 0 is less than W.
Warning: Ps = 0 is less than W.
Warning: Pd = 0 is less than W.
Warning: Ps = 0 is less than W.
Warning: Pd = 0 is less than W.
Warning: Ps = 0 is less than W.
Warning: Pd = 0 is less than W.
Warning: Ps = 0 is less than W.
Warning: Pd = 0 is less than W.
Warning: Ps = 0 is less than W.
Warning: Pd = 0 is less than W.
Warning: Ps = 0 is less than W.
Warning: Pd = 0 is less than W.
Warning: Ps = 0 is less than W.
Warning: Pd = 0 is less than W.
Warning: Ps = 0 is less than W.
Warning: Pd = 0 is less than W.
Warning: Ps = 0 is less than W.
Warning: Pd = 0 is less than W.
Warning: Ps = 0 is less than W.
Warning: Pd = 0 is less than W.
Warning: Ps = 0 is less than W.
Warning: Pd = 0 is less than W.
Warning: Ps = 0 is less than W.
Warning: Pd = 0 is less than W.
Warning: Ps = 0 is less than W.
Warning: Pd = 0 is less than W.
Warning: Ps = 0 is less than W.
Warning: Pd = 0 is less than W.
Warning: Ps = 0 is less than W.
Warning: Pd = 0 is less than W.
Warning: Ps = 0 is less than W.
Warning: Pd = 0 is less than W.
Warning: Ps = 0 is less than W.
Warning: Pd = 0 is less than W.
Warning: Ps = 0 is less than W.
Warning: Pd = 0 is less than W.
Warning: Ps = 0 is less than W.
Warning: Pd = 0 is less than W.
Warning: Ps = 0 is less than W.
Warning: Pd = 0 is less than W.
Warning: Ps = 0 is less than W.
Warning: Pd = 0 is less than W.
Warning: Ps = 0 is less than W.
Warning: Pd = 0 is less than W.
Warning: Ps = 0 is less than W.
Warning: Pd = 0 is less than W.
Warning: Ps = 0 is less than W.
Warning: Pd = 0 is less than W.
Warning: Ps = 0 is less than W.
Warning: Pd = 0 is less than W.
Warning: Ps = 0 is less than W.
Warning: Pd = 0 is less than W.
Warning: Ps = 0 is less than W.
Warning: Pd = 0 is less than W.
Warning: Ps = 0 is less than W.
Warning: Pd = 0 is less than W.
Warning: Ps = 0 is less than W.
Warning: Pd = 0 is less than W.
Warning: Ps = 0 is less than W.
Warning: Pd = 0 is less than W.
Warning: Ps = 0 is less than W.
Warning: Pd = 0 is less than W.
Warning: Ps = 0 is less than W.
Warning: Pd = 0 is less than W.
Warning: Ps = 0 is less than W.
Early termination of direct N-R iteration.
Direct Newton iteration failed to find .op point.  (Use ".option noopiter" to skip.)
Starting Gmin stepping
Gmin = 10
Gmin = 1.07374
Gmin = 0.115292
Gmin = 0.0123794
Gmin = 0.00132923
Gmin = 0.000142725
Gmin = 1.5325e-005
Gmin = 1.6455e-006
Gmin = 1.76685e-007
Gmin = 1.89714e-008
Gmin = 2.03704e-009
Gmin = 2.18725e-010
Gmin = 2.34854e-011
Gmin = 2.52173e-012
Gmin = 2.70769e-013
Gmin = 0
Gmin stepping succeeded in finding the operating point.


Date: Tue Mar 09 16:15:13 2021
Total elapsed time: 7.716 seconds.

tnom = 27
temp = 27
method = modified trap
totiter = 42279
traniter = 41829
tranpoints = 15852
accept = 11689
rejected = 4163
matrix size = 190
fillins = 458
solver = Normal
Thread vector: 388.3/73.9[12] 112.6/24.8[12] 38.2/12.5[12] 1.1/1.5[1]  2592/500
Matrix Compiler1: 54.45 KB object code size  12.2/5.1/[3.1]
Matrix Compiler2: 30.67 KB object code size  4.8/3.8/[1.9]

