Circuit: * Z:\home\sdanthinne\Documents\307\gateTransistorModels\s_gateTest.asc

Warning: Multiple definitions of model "x9:cd4007ube" Type: Mos1
Warning: Multiple definitions of model "x9:cd4007" Type: Mos1
Warning: Multiple definitions of model "x8:cd4007ube" Type: Mos1
Warning: Multiple definitions of model "x8:cd4007" Type: Mos1
Warning: Multiple definitions of model "x6:cd4007ube" Type: Mos1
Warning: Multiple definitions of model "x6:cd4007" Type: Mos1
Warning: Multiple definitions of model "x5:cd4007ube" Type: Mos1
Warning: Multiple definitions of model "x5:cd4007" Type: Mos1
Warning: Multiple definitions of model "x2:cd4007ube" Type: Mos1
Warning: Multiple definitions of model "x2:cd4007" Type: Mos1
Warning: Multiple definitions of model "x1:cd4007ube" Type: Mos1
Warning: Multiple definitions of model "x1:cd4007" Type: Mos1
Ignoring BSIM parameter XL
Ignoring BSIM parameter XW
Ignoring BSIM parameter XL
Ignoring BSIM parameter XW
Ignoring BSIM parameter XL
Ignoring BSIM parameter XW
Ignoring BSIM parameter XL
Ignoring BSIM parameter XW
Ignoring BSIM parameter XL
Ignoring BSIM parameter XW
Ignoring BSIM parameter XL
Ignoring BSIM parameter XW
Ignoring BSIM parameter XL
Ignoring BSIM parameter XW
Ignoring BSIM parameter XL
Ignoring BSIM parameter XW
Ignoring BSIM parameter XL
Ignoring BSIM parameter XW
Ignoring BSIM parameter XL
Ignoring BSIM parameter XW
Ignoring BSIM parameter XL
Ignoring BSIM parameter XW
Ignoring BSIM parameter XL
Ignoring BSIM parameter XW
WARNING: Less than two connections to node VAND.  This node is used by A:X1:1.
WARNING: Less than two connections to node VOR.  This node is used by A:X6:1.
WARNING: Less than two connections to node VXNOR.  This node is used by A:X8:3.
Warning: Pd = 0 is less than W.
Warning: Ps = 0 is less than W.
Warning: Pd = 0 is less than W.
Warning: Ps = 0 is less than W.
Warning: Pd = 0 is less than W.
Warning: Ps = 0 is less than W.
Warning: Pd = 0 is less than W.
Warning: Ps = 0 is less than W.
Warning: Pd = 0 is less than W.
Warning: Ps = 0 is less than W.
Warning: Pd = 0 is less than W.
Warning: Ps = 0 is less than W.
Warning: Pd = 0 is less than W.
Warning: Ps = 0 is less than W.
Warning: Pd = 0 is less than W.
Warning: Ps = 0 is less than W.
Warning: Pd = 0 is less than W.
Warning: Ps = 0 is less than W.
Warning: Pd = 0 is less than W.
Warning: Ps = 0 is less than W.
Warning: Pd = 0 is less than W.
Warning: Ps = 0 is less than W.
Warning: Pd = 0 is less than W.
Warning: Ps = 0 is less than W.
Direct Newton iteration for .op point succeeded.

Date: Thu Jan 28 14:31:23 2021
Total elapsed time: 0.321 seconds.

tnom = 27
temp = 27
method = modified trap
totiter = 13005
traniter = 12973
tranpoints = 4496
accept = 3579
rejected = 917
matrix size = 31
fillins = 0
solver = Normal
Thread vector: 21.2/12.3[3] 4.2/2.7[3] 0.9/0.9[1] 0.1/0.4[1]  2592/500
Matrix Compiler1: 2.23 KB object code size  0.7/0.3/[0.2]
Matrix Compiler2: 3.25 KB object code size  0.4/0.5/[0.2]

