Circuit: * Z:\home\sdanthinne\Documents\307\gateTransistorModels\s_gateTest.asc

Warning: Multiple definitions of model "x9:cd4007ube" Type: Mos1
Warning: Multiple definitions of model "x9:cd4007" Type: Mos1
Warning: Multiple definitions of model "x8:cd4007ube" Type: Mos1
Warning: Multiple definitions of model "x8:cd4007" Type: Mos1
Warning: Multiple definitions of model "x6:cd4007ube" Type: Mos1
Warning: Multiple definitions of model "x6:cd4007" Type: Mos1
Warning: Multiple definitions of model "x5:cd4007ube" Type: Mos1
Warning: Multiple definitions of model "x5:cd4007" Type: Mos1
Warning: Multiple definitions of model "x2:cd4007ube" Type: Mos1
Warning: Multiple definitions of model "x2:cd4007" Type: Mos1
Warning: Multiple definitions of model "x1:cd4007ube" Type: Mos1
Warning: Multiple definitions of model "x1:cd4007" Type: Mos1
Ignoring BSIM parameter XL
Ignoring BSIM parameter XW
Ignoring BSIM parameter XL
Ignoring BSIM parameter XW
Ignoring BSIM parameter XL
Ignoring BSIM parameter XW
Ignoring BSIM parameter XL
Ignoring BSIM parameter XW
Ignoring BSIM parameter XL
Ignoring BSIM parameter XW
Ignoring BSIM parameter XL
Ignoring BSIM parameter XW
Ignoring BSIM parameter XL
Ignoring BSIM parameter XW
Ignoring BSIM parameter XL
Ignoring BSIM parameter XW
Ignoring BSIM parameter XL
Ignoring BSIM parameter XW
Ignoring BSIM parameter XL
Ignoring BSIM parameter XW
Ignoring BSIM parameter XL
Ignoring BSIM parameter XW
Ignoring BSIM parameter XL
Ignoring BSIM parameter XW
WARNING: Less than two connections to node VAND.  This node is used by A:X1:1.
WARNING: Less than two connections to node VOR.  This node is used by A:X6:1.
WARNING: Less than two connections to node VXNOR.  This node is used by A:X8:3.
Warning: Pd = 0 is less than W.
Warning: Ps = 0 is less than W.
Warning: Pd = 0 is less than W.
Warning: Ps = 0 is less than W.
Warning: Pd = 0 is less than W.
Warning: Ps = 0 is less than W.
Warning: Pd = 0 is less than W.
Warning: Ps = 0 is less than W.
Warning: Pd = 0 is less than W.
Warning: Ps = 0 is less than W.
Warning: Pd = 0 is less than W.
Warning: Ps = 0 is less than W.
Warning: Pd = 0 is less than W.
Warning: Ps = 0 is less than W.
Warning: Pd = 0 is less than W.
Warning: Ps = 0 is less than W.
Warning: Pd = 0 is less than W.
Warning: Ps = 0 is less than W.
Warning: Pd = 0 is less than W.
Warning: Ps = 0 is less than W.
Warning: Pd = 0 is less than W.
Warning: Ps = 0 is less than W.
Warning: Pd = 0 is less than W.
Warning: Ps = 0 is less than W.
Direct Newton iteration for .op point succeeded.

Date: Wed Jan 27 14:55:06 2021
Total elapsed time: 0.296 seconds.

tnom = 27
temp = 27
method = modified trap
totiter = 13271
traniter = 13239
tranpoints = 4522
accept = 3595
rejected = 927
matrix size = 31
fillins = 0
solver = Normal
Thread vector: 15.5/9.2[3] 3.5/2.5[3] 0.6/0.9[1] 0.1/0.5[1]  2592/500
Matrix Compiler1: 2.23 KB object code size  0.4/0.2/[0.2]
Matrix Compiler2: 3.25 KB object code size  0.2/0.3/[0.2]

